<?xml version="1.0" encoding="UTF-8"?>

<!-- generated on 07/08/20 13:53:25 by Eclipse SUMO jtrrouter Version 1.5.0
<configuration xmlns:xsi="http://www.w3.org/2001/XMLSchema-instance" xsi:noNamespaceSchemaLocation="http://sumo.dlr.de/xsd/jtrrouterConfiguration.xsd">

    <input>
        <net-file value="YunLiangHeArtery_GuanghuaToQididajie.net.xml"/>
        <route-files value="YunLiangHeArtery_GuanghuaToQididajie.flow.xml"/>
        <turn-ratio-files value="YunLiangHeArtery_GuanghuaToQididajie.turnsdef.xml"/>
    </input>

    <output>
        <output-file value="YunLiangHeArtery_GuanghuaToQididajie.rou.xml"/>
    </output>

    <processing>
        <route-steps value="600"/>
        <no-internal-links value="true"/>
    </processing>

</configuration>
-->

<routes xmlns:xsi="http://www.w3.org/2001/XMLSchema-instance" xsi:noNamespaceSchemaLocation="http://sumo.dlr.de/xsd/routes_file.xsd">
    <vType id="from_north" length="5.00" maxSpeed="55.55" color="blue" accel="2.6" decel="4.5" sigma="0.5"/>
    <vehicle id="2_from_north.0" type="from_north" depart="0.00" departLane="best" departSpeed="desired">
        <route edges="2_n_entrance_0 2_n_exit_1"/>
    </vehicle>
    <vType id="from_south" length="5.00" maxSpeed="55.55" color="cyan" accel="2.6" decel="4.5" sigma="0.5"/>
    <vehicle id="2_from_south.0" type="from_south" depart="0.00" departLane="best" departSpeed="desired">
        <route edges="2_s_entrance_0 2_s_entrance_1 2_s_entrance_2 2_n_exit_0 2_n_exit_1"/>
    </vehicle>
    <vType id="from_west" length="5.00" maxSpeed="55.55" color="magenta" accel="2.6" decel="4.5" sigma="0.5"/>
    <vehicle id="2_from_west.0" type="from_west" depart="0.00" departLane="best" departSpeed="desired">
        <route edges="2_w_entrance_0 2_w_entrance_1 2_n_exit_0 2_n_exit_1"/>
    </vehicle>
    <vehicle id="3_from_north.0" type="from_north" depart="0.00" departLane="best" departSpeed="desired">
        <route edges="3_n_entrance_0 3_n_entrance_1 3_s_exit"/>
    </vehicle>
    <vehicle id="3_from_south.0" type="from_south" depart="0.00" departLane="best" departSpeed="desired">
        <route edges="3_s_entrance_0 3_s_entrance_1 3_n_exit_0 3_n_exit_1"/>
    </vehicle>
    <vehicle id="4_from_north.0" type="from_north" depart="0.00" departLane="best" departSpeed="desired">
        <route edges="4_n_entrance_0 4_n_entrance_1 4_s_exit"/>
    </vehicle>
    <vehicle id="4_from_south.0" type="from_south" depart="0.00" departLane="best" departSpeed="desired">
        <route edges="4_s_entrance_0 4_s_entrance_1 4_e_exit_0 4_e_exit_1 4to5 5_w_entrance_0 5_w_entrance_1 5_e_exit"/>
    </vehicle>
    <vType id="from_east" length="5.00" maxSpeed="55.55" color="yellow" accel="2.6" decel="4.5" sigma="0.5"/>
    <vehicle id="5_from_east.0" type="from_east" depart="0.00" departLane="best" departSpeed="desired">
        <route edges="5_e_entrance_0 5_e_entrance_1 5_w_exit 5to4 4_e_entrance_0 4_e_entrance_1 4_s_exit"/>
    </vehicle>
    <vehicle id="5_from_north.0" type="from_north" depart="0.00" departLane="best" departSpeed="desired">
        <route edges="5_n_entrance 5_s_exit"/>
    </vehicle>
    <vehicle id="5_from_south.0" type="from_south" depart="0.00" departLane="best" departSpeed="desired">
        <route edges="5_s_entrance 5_n_exit"/>
    </vehicle>
    <vehicle id="2_from_west.1" type="from_west" depart="3.60" departLane="best" departSpeed="desired">
        <route edges="2_w_entrance_0 2_w_entrance_1 2_e_exit 2to3 3_w_entrance_0 3_w_entrance_1 3_e_exit 3to4 4_w_entrance_0 4_w_entrance_1 4_e_exit_0 4_e_exit_1 4to5 5_w_entrance_0 5_w_entrance_1 5_e_exit"/>
    </vehicle>
    <vehicle id="5_from_east.1" type="from_east" depart="3.60" departLane="best" departSpeed="desired">
        <route edges="5_e_entrance_0 5_e_entrance_1 5_n_exit"/>
    </vehicle>
    <vehicle id="2_from_north.1" type="from_north" depart="7.20" departLane="best" departSpeed="desired">
        <route edges="2_n_entrance_0 2_n_entrance_1 2_e_exit 2to3 3_w_entrance_0 3_w_entrance_1 3_n_exit_0 3_n_exit_1"/>
    </vehicle>
    <vehicle id="2_from_south.1" type="from_south" depart="7.20" departLane="best" departSpeed="desired">
        <route edges="2_s_entrance_0 2_s_entrance_1 2_s_entrance_2 2_n_exit_0 2_n_exit_1"/>
    </vehicle>
    <vehicle id="2_from_west.2" type="from_west" depart="7.20" departLane="best" departSpeed="desired">
        <route edges="2_w_entrance_0 2_w_entrance_1 2_s_exit_0 2_s_exit_1 2_s_exit_2"/>
    </vehicle>
    <vehicle id="3_from_north.1" type="from_north" depart="7.20" departLane="best" departSpeed="desired">
        <route edges="3_n_entrance_0 3_n_entrance_1 3_e_exit 3to4 4_w_entrance_0 4_w_entrance_1 4_e_exit_0 4_e_exit_1 4to5 5_w_entrance_0 5_w_entrance_1 5_e_exit"/>
    </vehicle>
    <vehicle id="3_from_south.1" type="from_south" depart="7.20" departLane="best" departSpeed="desired">
        <route edges="3_s_entrance_0 3_s_entrance_1 3_n_exit_0 3_n_exit_1"/>
    </vehicle>
    <vehicle id="4_from_north.1" type="from_north" depart="7.20" departLane="best" departSpeed="desired">
        <route edges="4_n_entrance_0 4_n_entrance_1 4_e_exit_0 4_e_exit_1 4to5 5_w_entrance_0 5_w_entrance_1 5_n_exit"/>
    </vehicle>
    <vehicle id="4_from_south.1" type="from_south" depart="7.20" departLane="best" departSpeed="desired">
        <route edges="4_s_entrance_0 4_s_entrance_1 4_n_exit_0 4_n_exit_1"/>
    </vehicle>
    <vehicle id="5_from_east.2" type="from_east" depart="7.20" departLane="best" departSpeed="desired">
        <route edges="5_e_entrance_0 5_e_entrance_1 5_w_exit 5to4 4_e_entrance_0 4_e_entrance_1 4_w_exit 4to3 3_e_entrance_0 3_e_entrance_1 3_w_exit_0 3_w_exit_1 3to2 2_e_entrance_0 2_e_entrance_1 2_w_exit_0 2_w_exit_1"/>
    </vehicle>
    <vehicle id="5_from_north.1" type="from_north" depart="7.20" departLane="best" departSpeed="desired">
        <route edges="5_n_entrance 5_w_exit 5to4 4_e_entrance_0 4_e_entrance_1 4_s_exit"/>
    </vehicle>
    <vehicle id="5_from_south.1" type="from_south" depart="7.20" departLane="best" departSpeed="desired">
        <route edges="5_s_entrance 5_n_exit"/>
    </vehicle>
    <vehicle id="2_from_west.3" type="from_west" depart="10.80" departLane="best" departSpeed="desired">
        <route edges="2_w_entrance_0 2_w_entrance_1 2_e_exit 2to3 3_w_entrance_0 3_w_entrance_1 3_e_exit 3to4 4_w_entrance_0 4_w_entrance_1 4_e_exit_0 4_e_exit_1 4to5 5_w_entrance_0 5_w_entrance_1 5_e_exit"/>
    </vehicle>
    <vehicle id="5_from_east.3" type="from_east" depart="10.80" departLane="best" departSpeed="desired">
        <route edges="5_e_entrance_0 5_e_entrance_1 5_w_exit 5to4 4_e_entrance_0 4_e_entrance_1 4_s_exit"/>
    </vehicle>
    <vehicle id="2_from_north.2" type="from_north" depart="14.40" departLane="best" departSpeed="desired">
        <route edges="2_n_entrance_0 2_n_entrance_1 2_s_exit_0 2_s_exit_1 2_s_exit_2"/>
    </vehicle>
    <vehicle id="2_from_south.2" type="from_south" depart="14.40" departLane="best" departSpeed="desired">
        <route edges="2_s_entrance_0 2_s_entrance_1 2_s_entrance_2 2_n_exit_0 2_n_exit_1"/>
    </vehicle>
    <vehicle id="2_from_west.4" type="from_west" depart="14.40" departLane="best" departSpeed="desired">
        <route edges="2_w_entrance_0 2_w_entrance_1 2_n_exit_0 2_n_exit_1"/>
    </vehicle>
    <vehicle id="3_from_north.2" type="from_north" depart="14.40" departLane="best" departSpeed="desired">
        <route edges="3_n_entrance_0 3_n_entrance_1 3_w_exit_0 3_w_exit_1 3to2 2_e_entrance_0 2_e_entrance_1 2_s_exit_0 2_s_exit_1 2_s_exit_2"/>
    </vehicle>
    <vehicle id="3_from_south.2" type="from_south" depart="14.40" departLane="best" departSpeed="desired">
        <route edges="3_s_entrance_0 3_s_entrance_1 3_w_exit_0 3_w_exit_1 3to2 2_e_entrance_0 2_e_entrance_1 2_w_exit_0 2_w_exit_1"/>
    </vehicle>
    <vehicle id="4_from_north.2" type="from_north" depart="14.40" departLane="best" departSpeed="desired">
        <route edges="4_n_entrance_0 4_n_entrance_1 4_w_exit 4to3 3_e_entrance_0 3_e_entrance_1 3_w_exit_0 3_w_exit_1 3to2 2_e_entrance_0 2_e_entrance_1 2_w_exit_0 2_w_exit_1"/>
    </vehicle>
    <vehicle id="4_from_south.2" type="from_south" depart="14.40" departLane="best" departSpeed="desired">
        <route edges="4_s_entrance_0 4_s_entrance_1 4_n_exit_0 4_n_exit_1"/>
    </vehicle>
    <vehicle id="5_from_east.4" type="from_east" depart="14.40" departLane="best" departSpeed="desired">
        <route edges="5_e_entrance_0 5_e_entrance_1 5_s_exit"/>
    </vehicle>
    <vehicle id="5_from_north.2" type="from_north" depart="14.40" departLane="best" departSpeed="desired">
        <route edges="5_n_entrance 5_s_exit"/>
    </vehicle>
    <vehicle id="5_from_south.2" type="from_south" depart="14.40" departLane="best" departSpeed="desired">
        <route edges="5_s_entrance 5_n_exit"/>
    </vehicle>
    <vehicle id="2_from_west.5" type="from_west" depart="18.00" departLane="best" departSpeed="desired">
        <route edges="2_w_entrance_0 2_w_entrance_1 2_e_exit 2to3 3_w_entrance_0 3_w_entrance_1 3_e_exit 3to4 4_w_entrance_0 4_w_entrance_1 4_e_exit_0 4_e_exit_1 4to5 5_w_entrance_0 5_w_entrance_1 5_e_exit"/>
    </vehicle>
    <vehicle id="5_from_east.5" type="from_east" depart="18.00" departLane="best" departSpeed="desired">
        <route edges="5_e_entrance_0 5_e_entrance_1 5_s_exit"/>
    </vehicle>
    <vehicle id="2_from_north.3" type="from_north" depart="21.60" departLane="best" departSpeed="desired">
        <route edges="2_n_entrance_0 2_n_entrance_1 2_e_exit 2to3 3_w_entrance_0 3_w_entrance_1 3_e_exit 3to4 4_w_entrance_0 4_w_entrance_1 4_e_exit_0 4_e_exit_1 4to5 5_w_entrance_0 5_w_entrance_1 5_e_exit"/>
    </vehicle>
    <vehicle id="2_from_south.3" type="from_south" depart="21.60" departLane="best" departSpeed="desired">
        <route edges="2_s_entrance_0 2_s_entrance_1 2_s_entrance_2 2_n_exit_0 2_n_exit_1"/>
    </vehicle>
    <vehicle id="2_from_west.6" type="from_west" depart="21.60" departLane="best" departSpeed="desired">
        <route edges="2_w_entrance_0 2_w_entrance_1 2_n_exit_0 2_n_exit_1"/>
    </vehicle>
    <vehicle id="3_from_north.3" type="from_north" depart="21.60" departLane="best" departSpeed="desired">
        <route edges="3_n_entrance_0 3_n_entrance_1 3_e_exit 3to4 4_w_entrance_0 4_w_entrance_1 4_e_exit_0 4_e_exit_1 4to5 5_w_entrance_0 5_w_entrance_1 5_s_exit"/>
    </vehicle>
    <vehicle id="3_from_south.3" type="from_south" depart="21.60" departLane="best" departSpeed="desired">
        <route edges="3_s_entrance_0 3_s_entrance_1 3_n_exit_0 3_n_exit_1"/>
    </vehicle>
    <vehicle id="4_from_north.3" type="from_north" depart="21.60" departLane="best" departSpeed="desired">
        <route edges="4_n_entrance_0 4_n_entrance_1 4_e_exit_0 4_e_exit_1 4to5 5_w_entrance_0 5_w_entrance_1 5_n_exit"/>
    </vehicle>
    <vehicle id="4_from_south.3" type="from_south" depart="21.60" departLane="best" departSpeed="desired">
        <route edges="4_s_entrance_0 4_s_entrance_1 4_n_exit_0 4_n_exit_1"/>
    </vehicle>
    <vehicle id="5_from_east.6" type="from_east" depart="21.60" departLane="best" departSpeed="desired">
        <route edges="5_e_entrance_0 5_e_entrance_1 5_n_exit"/>
    </vehicle>
    <vehicle id="5_from_north.3" type="from_north" depart="21.60" departLane="best" departSpeed="desired">
        <route edges="5_n_entrance 5_e_exit"/>
    </vehicle>
    <vehicle id="5_from_south.3" type="from_south" depart="21.60" departLane="best" departSpeed="desired">
        <route edges="5_s_entrance 5_n_exit"/>
    </vehicle>
    <vehicle id="2_from_west.7" type="from_west" depart="25.20" departLane="best" departSpeed="desired">
        <route edges="2_w_entrance_0 2_w_entrance_1 2_e_exit 2to3 3_w_entrance_0 3_w_entrance_1 3_e_exit 3to4 4_w_entrance_0 4_w_entrance_1 4_e_exit_0 4_e_exit_1 4to5 5_w_entrance_0 5_w_entrance_1 5_n_exit"/>
    </vehicle>
    <vehicle id="5_from_east.7" type="from_east" depart="25.20" departLane="best" departSpeed="desired">
        <route edges="5_e_entrance_0 5_e_entrance_1 5_s_exit"/>
    </vehicle>
    <vehicle id="2_from_north.4" type="from_north" depart="28.80" departLane="best" departSpeed="desired">
        <route edges="2_n_entrance_0 2_n_entrance_1 2_w_exit_0 2_w_exit_1"/>
    </vehicle>
    <vehicle id="2_from_south.4" type="from_south" depart="28.80" departLane="best" departSpeed="desired">
        <route edges="2_s_entrance_0 2_s_entrance_1 2_s_entrance_2 2_n_exit_0 2_n_exit_1"/>
    </vehicle>
    <vehicle id="2_from_west.8" type="from_west" depart="28.80" departLane="best" departSpeed="desired">
        <route edges="2_w_entrance_0 2_w_entrance_1 2_s_exit_0 2_s_exit_1 2_s_exit_2"/>
    </vehicle>
    <vehicle id="3_from_north.4" type="from_north" depart="28.80" departLane="best" departSpeed="desired">
        <route edges="3_n_entrance_0 3_n_entrance_1 3_w_exit_0 3_w_exit_1 3to2 2_e_entrance_0 2_e_entrance_1 2_w_exit_0 2_w_exit_1"/>
    </vehicle>
    <vehicle id="3_from_south.4" type="from_south" depart="28.80" departLane="best" departSpeed="desired">
        <route edges="3_s_entrance_0 3_s_entrance_1 3_e_exit 3to4 4_w_entrance_0 4_w_entrance_1 4_e_exit_0 4_e_exit_1 4to5 5_w_entrance_0 5_w_entrance_1 5_e_exit"/>
    </vehicle>
    <vehicle id="4_from_north.4" type="from_north" depart="28.80" departLane="best" departSpeed="desired">
        <route edges="4_n_entrance_0 4_n_entrance_1 4_s_exit"/>
    </vehicle>
    <vehicle id="4_from_south.4" type="from_south" depart="28.80" departLane="best" departSpeed="desired">
        <route edges="4_s_entrance_0 4_s_entrance_1 4_n_exit_0 4_n_exit_1"/>
    </vehicle>
    <vehicle id="5_from_east.8" type="from_east" depart="28.80" departLane="best" departSpeed="desired">
        <route edges="5_e_entrance_0 5_e_entrance_1 5_w_exit 5to4 4_e_entrance_0 4_e_entrance_1 4_w_exit 4to3 3_e_entrance_0 3_e_entrance_1 3_s_exit"/>
    </vehicle>
    <vehicle id="5_from_north.4" type="from_north" depart="28.80" departLane="best" departSpeed="desired">
        <route edges="5_n_entrance 5_w_exit 5to4 4_e_entrance_0 4_e_entrance_1 4_w_exit 4to3 3_e_entrance_0 3_e_entrance_1 3_w_exit_0 3_w_exit_1 3to2 2_e_entrance_0 2_e_entrance_1 2_n_exit_0 2_n_exit_1"/>
    </vehicle>
    <vehicle id="5_from_south.4" type="from_south" depart="28.80" departLane="best" departSpeed="desired">
        <route edges="5_s_entrance 5_n_exit"/>
    </vehicle>
    <vehicle id="2_from_west.9" type="from_west" depart="32.40" departLane="best" departSpeed="desired">
        <route edges="2_w_entrance_0 2_w_entrance_1 2_s_exit_0 2_s_exit_1 2_s_exit_2"/>
    </vehicle>
    <vehicle id="5_from_east.9" type="from_east" depart="32.40" departLane="best" departSpeed="desired">
        <route edges="5_e_entrance_0 5_e_entrance_1 5_w_exit 5to4 4_e_entrance_0 4_e_entrance_1 4_w_exit 4to3 3_e_entrance_0 3_e_entrance_1 3_n_exit_0 3_n_exit_1"/>
    </vehicle>
    <vehicle id="2_from_north.5" type="from_north" depart="36.00" departLane="best" departSpeed="desired">
        <route edges="2_n_entrance_0 2_n_entrance_1 2_e_exit 2to3 3_w_entrance_0 3_w_entrance_1 3_s_exit"/>
    </vehicle>
    <vehicle id="2_from_south.5" type="from_south" depart="36.00" departLane="best" departSpeed="desired">
        <route edges="2_s_entrance_0 2_s_entrance_1 2_s_exit_1 2_s_exit_2"/>
    </vehicle>
    <vehicle id="2_from_west.10" type="from_west" depart="36.00" departLane="best" departSpeed="desired">
        <route edges="2_w_entrance_0 2_w_entrance_1 2_e_exit 2to3 3_w_entrance_0 3_w_entrance_1 3_e_exit 3to4 4_w_entrance_0 4_w_entrance_1 4_s_exit"/>
    </vehicle>
    <vehicle id="3_from_north.5" type="from_north" depart="36.00" departLane="best" departSpeed="desired">
        <route edges="3_n_entrance_0 3_n_entrance_1 3_w_exit_0 3_w_exit_1 3to2 2_e_entrance_0 2_e_entrance_1 2_n_exit_0 2_n_exit_1"/>
    </vehicle>
    <vehicle id="3_from_south.5" type="from_south" depart="36.00" departLane="best" departSpeed="desired">
        <route edges="3_s_entrance_0 3_s_entrance_1 3_n_exit_0 3_n_exit_1"/>
    </vehicle>
    <vehicle id="4_from_north.5" type="from_north" depart="36.00" departLane="best" departSpeed="desired">
        <route edges="4_n_entrance_0 4_n_entrance_1 4_e_exit_0 4_e_exit_1 4to5 5_w_entrance_0 5_w_entrance_1 5_n_exit"/>
    </vehicle>
    <vehicle id="4_from_south.5" type="from_south" depart="36.00" departLane="best" departSpeed="desired">
        <route edges="4_s_entrance_0 4_s_entrance_1 4_n_exit_0 4_n_exit_1"/>
    </vehicle>
    <vehicle id="5_from_east.10" type="from_east" depart="36.00" departLane="best" departSpeed="desired">
        <route edges="5_e_entrance_0 5_e_entrance_1 5_w_exit 5to4 4_e_entrance_0 4_e_entrance_1 4_w_exit 4to3 3_e_entrance_0 3_e_entrance_1 3_s_exit"/>
    </vehicle>
    <vehicle id="5_from_north.5" type="from_north" depart="36.00" departLane="best" departSpeed="desired">
        <route edges="5_n_entrance 5_s_exit"/>
    </vehicle>
    <vehicle id="5_from_south.5" type="from_south" depart="36.00" departLane="best" departSpeed="desired">
        <route edges="5_s_entrance 5_n_exit"/>
    </vehicle>
    <vehicle id="2_from_west.11" type="from_west" depart="39.60" departLane="best" departSpeed="desired">
        <route edges="2_w_entrance_0 2_w_entrance_1 2_e_exit 2to3 3_w_entrance_0 3_w_entrance_1 3_s_exit"/>
    </vehicle>
    <vehicle id="5_from_east.11" type="from_east" depart="39.60" departLane="best" departSpeed="desired">
        <route edges="5_e_entrance_0 5_e_entrance_1 5_s_exit"/>
    </vehicle>
    <vehicle id="2_from_north.6" type="from_north" depart="43.20" departLane="best" departSpeed="desired">
        <route edges="2_n_entrance_0 2_n_entrance_1 2_w_exit_0 2_w_exit_1"/>
    </vehicle>
    <vehicle id="2_from_south.6" type="from_south" depart="43.20" departLane="best" departSpeed="desired">
        <route edges="2_s_entrance_0 2_s_entrance_1 2_s_entrance_2 2_n_exit_0 2_n_exit_1"/>
    </vehicle>
    <vehicle id="2_from_west.12" type="from_west" depart="43.20" departLane="best" departSpeed="desired">
        <route edges="2_w_entrance_0 2_w_entrance_1 2_n_exit_0 2_n_exit_1"/>
    </vehicle>
    <vehicle id="3_from_north.6" type="from_north" depart="43.20" departLane="best" departSpeed="desired">
        <route edges="3_n_entrance_0 3_n_entrance_1 3_s_exit"/>
    </vehicle>
    <vehicle id="3_from_south.6" type="from_south" depart="43.20" departLane="best" departSpeed="desired">
        <route edges="3_s_entrance_0 3_s_entrance_1 3_n_exit_0 3_n_exit_1"/>
    </vehicle>
    <vehicle id="4_from_north.6" type="from_north" depart="43.20" departLane="best" departSpeed="desired">
        <route edges="4_n_entrance_0 4_n_entrance_1 4_w_exit 4to3 3_e_entrance_0 3_e_entrance_1 3_w_exit_0 3_w_exit_1 3to2 2_e_entrance_0 2_e_entrance_1 2_w_exit_0 2_w_exit_1"/>
    </vehicle>
    <vehicle id="4_from_south.6" type="from_south" depart="43.20" departLane="best" departSpeed="desired">
        <route edges="4_s_entrance_0 4_s_entrance_1 4_n_exit_0 4_n_exit_1"/>
    </vehicle>
    <vehicle id="5_from_east.12" type="from_east" depart="43.20" departLane="best" departSpeed="desired">
        <route edges="5_e_entrance_0 5_e_entrance_1 5_s_exit"/>
    </vehicle>
    <vehicle id="5_from_north.6" type="from_north" depart="43.20" departLane="best" departSpeed="desired">
        <route edges="5_n_entrance 5_w_exit 5to4 4_e_entrance_0 4_e_entrance_1 4_w_exit 4to3 3_e_entrance_0 3_e_entrance_1 3_w_exit_0 3_w_exit_1 3to2 2_e_entrance_0 2_e_entrance_1 2_w_exit_0 2_w_exit_1"/>
    </vehicle>
    <vehicle id="5_from_south.6" type="from_south" depart="43.20" departLane="best" departSpeed="desired">
        <route edges="5_s_entrance 5_n_exit"/>
    </vehicle>
    <vehicle id="2_from_west.13" type="from_west" depart="46.80" departLane="best" departSpeed="desired">
        <route edges="2_w_entrance_0 2_w_entrance_1 2_e_exit 2to3 3_w_entrance_0 3_w_entrance_1 3_e_exit 3to4 4_w_entrance_0 4_w_entrance_1 4_e_exit_0 4_e_exit_1 4to5 5_w_entrance_0 5_w_entrance_1 5_e_exit"/>
    </vehicle>
    <vehicle id="5_from_east.13" type="from_east" depart="46.80" departLane="best" departSpeed="desired">
        <route edges="5_e_entrance_0 5_e_entrance_1 5_w_exit 5to4 4_e_entrance_0 4_e_entrance_1 4_w_exit 4to3 3_e_entrance_0 3_e_entrance_1 3_w_exit_0 3_w_exit_1 3to2 2_e_entrance_0 2_e_entrance_1 2_n_exit_0 2_n_exit_1"/>
    </vehicle>
    <vehicle id="2_from_north.7" type="from_north" depart="50.40" departLane="best" departSpeed="desired">
        <route edges="2_n_entrance_0 2_n_entrance_1 2_w_exit_0 2_w_exit_1"/>
    </vehicle>
    <vehicle id="2_from_south.7" type="from_south" depart="50.40" departLane="best" departSpeed="desired">
        <route edges="2_s_entrance_0 2_s_entrance_1 2_s_entrance_2 2_w_exit_0 2_w_exit_1"/>
    </vehicle>
    <vehicle id="2_from_west.14" type="from_west" depart="50.40" departLane="best" departSpeed="desired">
        <route edges="2_w_entrance_0 2_w_entrance_1 2_e_exit 2to3 3_w_entrance_0 3_w_entrance_1 3_n_exit_0 3_n_exit_1"/>
    </vehicle>
    <vehicle id="3_from_north.7" type="from_north" depart="50.40" departLane="best" departSpeed="desired">
        <route edges="3_n_entrance_0 3_n_entrance_1 3_s_exit"/>
    </vehicle>
    <vehicle id="3_from_south.7" type="from_south" depart="50.40" departLane="best" departSpeed="desired">
        <route edges="3_s_entrance_0 3_s_entrance_1 3_n_exit_0 3_n_exit_1"/>
    </vehicle>
    <vehicle id="4_from_north.7" type="from_north" depart="50.40" departLane="best" departSpeed="desired">
        <route edges="4_n_entrance_0 4_n_entrance_1 4_e_exit_0 4_e_exit_1 4to5 5_w_entrance_0 5_w_entrance_1 5_s_exit"/>
    </vehicle>
    <vehicle id="4_from_south.7" type="from_south" depart="50.40" departLane="best" departSpeed="desired">
        <route edges="4_s_entrance_0 4_s_entrance_1 4_n_exit_0 4_n_exit_1"/>
    </vehicle>
    <vehicle id="5_from_east.14" type="from_east" depart="50.40" departLane="best" departSpeed="desired">
        <route edges="5_e_entrance_0 5_e_entrance_1 5_s_exit"/>
    </vehicle>
    <vehicle id="5_from_north.7" type="from_north" depart="50.40" departLane="best" departSpeed="desired">
        <route edges="5_n_entrance 5_s_exit"/>
    </vehicle>
    <vehicle id="5_from_south.7" type="from_south" depart="50.40" departLane="best" departSpeed="desired">
        <route edges="5_s_entrance 5_n_exit"/>
    </vehicle>
    <vehicle id="2_from_west.15" type="from_west" depart="54.00" departLane="best" departSpeed="desired">
        <route edges="2_w_entrance_0 2_w_entrance_1 2_e_exit 2to3 3_w_entrance_0 3_w_entrance_1 3_n_exit_0 3_n_exit_1"/>
    </vehicle>
    <vehicle id="5_from_east.15" type="from_east" depart="54.00" departLane="best" departSpeed="desired">
        <route edges="5_e_entrance_0 5_e_entrance_1 5_s_exit"/>
    </vehicle>
    <vehicle id="2_from_north.8" type="from_north" depart="57.60" departLane="best" departSpeed="desired">
        <route edges="2_n_entrance_0 2_n_entrance_1 2_s_exit_0 2_s_exit_1 2_s_exit_2"/>
    </vehicle>
    <vehicle id="2_from_south.8" type="from_south" depart="57.60" departLane="best" departSpeed="desired">
        <route edges="2_s_entrance_0 2_s_entrance_1 2_s_entrance_2 2_n_exit_0 2_n_exit_1"/>
    </vehicle>
    <vehicle id="2_from_west.16" type="from_west" depart="57.60" departLane="best" departSpeed="desired">
        <route edges="2_w_entrance_0 2_w_entrance_1 2_n_exit_0 2_n_exit_1"/>
    </vehicle>
    <vehicle id="3_from_north.8" type="from_north" depart="57.60" departLane="best" departSpeed="desired">
        <route edges="3_n_entrance_0 3_n_entrance_1 3_w_exit_0 3_w_exit_1 3to2 2_e_entrance_0 2_e_entrance_1 2_n_exit_0 2_n_exit_1"/>
    </vehicle>
    <vehicle id="3_from_south.8" type="from_south" depart="57.60" departLane="best" departSpeed="desired">
        <route edges="3_s_entrance_0 3_s_entrance_1 3_n_exit_0 3_n_exit_1"/>
    </vehicle>
    <vehicle id="4_from_north.8" type="from_north" depart="57.60" departLane="best" departSpeed="desired">
        <route edges="4_n_entrance_0 4_n_entrance_1 4_s_exit"/>
    </vehicle>
    <vehicle id="4_from_south.8" type="from_south" depart="57.60" departLane="best" departSpeed="desired">
        <route edges="4_s_entrance_0 4_s_entrance_1 4_n_exit_0 4_n_exit_1"/>
    </vehicle>
    <vehicle id="5_from_east.16" type="from_east" depart="57.60" departLane="best" departSpeed="desired">
        <route edges="5_e_entrance_0 5_e_entrance_1 5_w_exit 5to4 4_e_entrance_0 4_e_entrance_1 4_s_exit"/>
    </vehicle>
    <vehicle id="5_from_north.8" type="from_north" depart="57.60" departLane="best" departSpeed="desired">
        <route edges="5_n_entrance 5_w_exit 5to4 4_e_entrance_0 4_e_entrance_1 4_w_exit 4to3 3_e_entrance_0 3_e_entrance_1 3_s_exit"/>
    </vehicle>
    <vehicle id="5_from_south.8" type="from_south" depart="57.60" departLane="best" departSpeed="desired">
        <route edges="5_s_entrance 5_n_exit"/>
    </vehicle>
    <vehicle id="2_from_west.17" type="from_west" depart="61.20" departLane="best" departSpeed="desired">
        <route edges="2_w_entrance_0 2_w_entrance_1 2_e_exit 2to3 3_w_entrance_0 3_w_entrance_1 3_e_exit 3to4 4_w_entrance_0 4_w_entrance_1 4_n_exit_0 4_n_exit_1"/>
    </vehicle>
    <vehicle id="5_from_east.17" type="from_east" depart="61.20" departLane="best" departSpeed="desired">
        <route edges="5_e_entrance_0 5_e_entrance_1 5_w_exit 5to4 4_e_entrance_0 4_e_entrance_1 4_w_exit 4to3 3_e_entrance_0 3_e_entrance_1 3_w_exit_0 3_w_exit_1 3to2 2_e_entrance_0 2_e_entrance_1 2_w_exit_0 2_w_exit_1"/>
    </vehicle>
    <vehicle id="2_from_north.9" type="from_north" depart="64.80" departLane="best" departSpeed="desired">
        <route edges="2_n_entrance_0 2_n_entrance_1 2_s_exit_0 2_s_exit_1 2_s_exit_2"/>
    </vehicle>
    <vehicle id="2_from_south.9" type="from_south" depart="64.80" departLane="best" departSpeed="desired">
        <route edges="2_s_entrance_0 2_s_entrance_1 2_s_exit_1 2_s_exit_2"/>
    </vehicle>
    <vehicle id="2_from_west.18" type="from_west" depart="64.80" departLane="best" departSpeed="desired">
        <route edges="2_w_entrance_0 2_w_entrance_1 2_e_exit 2to3 3_w_entrance_0 3_w_entrance_1 3_e_exit 3to4 4_w_entrance_0 4_w_entrance_1 4_e_exit_0 4_e_exit_1 4to5 5_w_entrance_0 5_w_entrance_1 5_n_exit"/>
    </vehicle>
    <vehicle id="3_from_north.9" type="from_north" depart="64.80" departLane="best" departSpeed="desired">
        <route edges="3_n_entrance_0 3_n_entrance_1 3_w_exit_0 3_w_exit_1 3to2 2_e_entrance_0 2_e_entrance_1 2_w_exit_0 2_w_exit_1"/>
    </vehicle>
    <vehicle id="3_from_south.9" type="from_south" depart="64.80" departLane="best" departSpeed="desired">
        <route edges="3_s_entrance_0 3_s_entrance_1 3_w_exit_0 3_w_exit_1 3to2 2_e_entrance_0 2_e_entrance_1 2_w_exit_0 2_w_exit_1"/>
    </vehicle>
    <vehicle id="4_from_north.9" type="from_north" depart="64.80" departLane="best" departSpeed="desired">
        <route edges="4_n_entrance_0 4_n_entrance_1 4_w_exit 4to3 3_e_entrance_0 3_e_entrance_1 3_w_exit_0 3_w_exit_1 3to2 2_e_entrance_0 2_e_entrance_1 2_w_exit_0 2_w_exit_1"/>
    </vehicle>
    <vehicle id="4_from_south.9" type="from_south" depart="64.80" departLane="best" departSpeed="desired">
        <route edges="4_s_entrance_0 4_s_entrance_1 4_w_exit 4to3 3_e_entrance_0 3_e_entrance_1 3_w_exit_0 3_w_exit_1 3to2 2_e_entrance_0 2_e_entrance_1 2_w_exit_0 2_w_exit_1"/>
    </vehicle>
    <vehicle id="5_from_east.18" type="from_east" depart="64.80" departLane="best" departSpeed="desired">
        <route edges="5_e_entrance_0 5_e_entrance_1 5_w_exit 5to4 4_e_entrance_0 4_e_entrance_1 4_s_exit"/>
    </vehicle>
    <vehicle id="5_from_north.9" type="from_north" depart="64.80" departLane="best" departSpeed="desired">
        <route edges="5_n_entrance 5_e_exit"/>
    </vehicle>
    <vehicle id="5_from_south.9" type="from_south" depart="64.80" departLane="best" departSpeed="desired">
        <route edges="5_s_entrance 5_w_exit 5to4 4_e_entrance_0 4_e_entrance_1 4_n_exit_0 4_n_exit_1"/>
    </vehicle>
    <vehicle id="2_from_west.19" type="from_west" depart="68.40" departLane="best" departSpeed="desired">
        <route edges="2_w_entrance_0 2_w_entrance_1 2_s_exit_0 2_s_exit_1 2_s_exit_2"/>
    </vehicle>
    <vehicle id="5_from_east.19" type="from_east" depart="68.40" departLane="best" departSpeed="desired">
        <route edges="5_e_entrance_0 5_e_entrance_1 5_n_exit"/>
    </vehicle>
    <vehicle id="2_from_north.10" type="from_north" depart="72.00" departLane="best" departSpeed="desired">
        <route edges="2_n_entrance_0 2_n_entrance_1 2_s_exit_0 2_s_exit_1 2_s_exit_2"/>
    </vehicle>
    <vehicle id="2_from_south.10" type="from_south" depart="72.00" departLane="best" departSpeed="desired">
        <route edges="2_s_entrance_0 2_s_entrance_1 2_s_entrance_2 2_n_exit_0 2_n_exit_1"/>
    </vehicle>
    <vehicle id="2_from_west.20" type="from_west" depart="72.00" departLane="best" departSpeed="desired">
        <route edges="2_w_entrance_0 2_w_entrance_1 2_e_exit 2to3 3_w_entrance_0 3_w_entrance_1 3_e_exit 3to4 4_w_entrance_0 4_w_entrance_1 4_n_exit_0 4_n_exit_1"/>
    </vehicle>
    <vehicle id="3_from_north.10" type="from_north" depart="72.00" departLane="best" departSpeed="desired">
        <route edges="3_n_entrance_0 3_n_entrance_1 3_s_exit"/>
    </vehicle>
    <vehicle id="3_from_south.10" type="from_south" depart="72.00" departLane="best" departSpeed="desired">
        <route edges="3_s_entrance_0 3_s_entrance_1 3_n_exit_0 3_n_exit_1"/>
    </vehicle>
    <vehicle id="4_from_north.10" type="from_north" depart="72.00" departLane="best" departSpeed="desired">
        <route edges="4_n_entrance_0 4_n_entrance_1 4_s_exit"/>
    </vehicle>
    <vehicle id="4_from_south.10" type="from_south" depart="72.00" departLane="best" departSpeed="desired">
        <route edges="4_s_entrance_0 4_s_entrance_1 4_n_exit_0 4_n_exit_1"/>
    </vehicle>
    <vehicle id="5_from_east.20" type="from_east" depart="72.00" departLane="best" departSpeed="desired">