<nodes>
    <!-- yunlianghe-guanghua crossroad -->
    <node id="2" x="1780" y="0" radius="15" type="traffic_light_right_on_red"/>
    <!-- north branch -->
    <node id="2_n_upstream" x="1780" y="200" type="priority" />
    <node id="2_n_downstream" x="1780" y="200" type="priority" />
    <node id="2_n_0" x="1780" y="150" type="priority" /> <!--u-turn node-->
    <!-- south branch -->
    <node id="2_s_upstream" x="1780" y="-300" type="priority" />
    <node id="2_s_downstream" x="1780" y="-200" type="priority" />
    <node id="2_s_0" x="1780" y="-240" type="priority" /> <!--located on 2_s_entrance-->
    <node id="2_s_1" x="1780" y="-140" type="zipper" /> <!--located on 2_s_exit-->
    <node id="2_s_2" x="1780" y="-60" type="priority" /> <!--located on 2_s_entrance--> <!--u-turn node-->
    <!-- west branch -->
    <node id="2_w_upstream" x="1580" y="0" type="priority" />
    <node id="2_w_downstream" x="1580" y="0" type="priority" />
    <node id="2_w_0" x="1650" y="0" type="zipper" /> <!--located on 2_w_exit-->
    <node id="2_w_1" x="1670" y="0" type="priority" /><!--located on 2_w_entrance-->
    <!-- east branch -->
    <node id="2_e_upstream" x="1980" y="0" type="priority" />
    <node id="2_e_downstream" x="1980" y="0" type="priority" />
    <node id="2_e_0" x="1910" y="0" type="priority" /> <!--located on 2_e_entrance-->



    <!-- yunlianghe-cangbomennan crossroad -->
    <node id="3" x="2230" y="0" radius="15" type="traffic_light_right_on_red"/>
    <!-- north branch -->
    <node id="3_n_upstream" x="2230" y="200" type="priority" />
    <node id="3_n_downstream" x="2230" y="200" type="priority" />
    <node id="3_n_0" x="2230" y="130" type="priority"/>
    <!-- south branch -->
    <node id="3_s_upstream" x="2230" y="-200" type="priority" />
    <node id="3_s_downstream" x="2230" y="-200" type="priority" />
    <node id="3_s_0" x="2230" y="-100" type="priority"/>
    <!-- west branch -->
    <node id="3_w_upstream" x="2030" y="0" type="priority" />
    <node id="3_w_downstream" x="2030" y="0" type="priority" />
    <node id="3_w_0" x="2130" y="0" type="priority" /> <!--located on 3_w_exit--> <!--这里本应该是2090忽略了40m的公交专用停靠-->
    <node id="3_w_1" x="2130" y="0" type="priority" /><!--located on 3_w_entrance-->
    <!-- east branch -->
    <node id="3_e_upstream" x="2430" y="0" type="priority" />
    <node id="3_e_downstream" x="2430" y="0" type="priority" />
    <node id="3_e_0" x="2340" y="0" type="priority"/> <!--located on 3_e_entrance-->

    <!-- yunlianghe-cangbomenbei crossroad -->
    <node id="4" x="2750" y="0" radius="15" type="traffic_light_right_on_red"/>
    <!-- north branch -->
    <node id="4_n_upstream" x="2750" y="200" type="priority" />
    <node id="4_n_downstream" x="2750" y="200" type="priority" />
    <node id="4_n_0" x="2750" y="120" type="priority"/>
    <!-- south branch -->
    <node id="4_s_upstream" x="2750" y="-200" type="priority" />
    <node id="4_s_downstream" x="2750" y="-200" type="priority" />
    <node id="4_s_0" x="2750" y="-140" type="priority"/>
    <!-- west branch -->
    <node id="4_w_upstream" x="2550" y="0" type="priority" />
    <node id="4_w_downstream" x="2550" y="0" type="priority" />
    <node id="4_w_0" x="2640" y="0" type="priority" /> <!--located on 4_w_entrance-->
    <!-- east branch -->
    <node id="4_e_upstream" x="2950" y="0" type="priority" />
    <node id="4_e_downstream" x="2950" y="0" type="priority" />
    <node id="4_e_0" x="2830" y="0" type="priority"/> <!--located on 4_e_exit-->
    <node id="4_e_1" x="2830" y="0" type="priority"/> <!--located on 4_e_entrance-->

    <!-- yunlianghe-qididajie crossroad -->
    <node id="5" x="3230" y="0" radius="15" type="traffic_light_right_on_red"/>
    <!-- north branch -->
    <node id="5_n_upstream" x="3230" y="200" type="priority" />
    <node id="5_n_downstream" x="3230" y="200" type="priority" />
    <!-- south branch -->
    <node id="5_s_upstream" x="3230" y="-200" type="priority" />
    <node id="5_s_downstream" x="3230" y="-200" type="priority" />
    <!-- west branch -->
    <node id="5_w_upstream" x="3030" y="0" type="priority" />
    <node id="5_w_downstream" x="3030" y="0" type="priority" />
    <node id="5_w_0" x="3110" y="0" type="priority" /> <!--located on 5_w_entrance-->
    <!-- east branch -->
    <node id="5_e_upstream" x="3430" y="0" type="priority" />
    <node id="5_e_downstream" x="3430" y="0" type="priority" />
    <node id="5_e_0" x="3360" y="0" type="priority" /> <!--located on 5_e_entrance-->

</nodes>