<configuration>
    <input>
        <net-file value="YunLiangHeArtery_GuanghuaToQididajie.net.xml"/>
    </input>
    <time>
        <begin value="0"/>
        <end value="600"/>
        <step-length value="1"/>
    </time>
    <output>
    </output>
</configuration>