<?xml version="1.0" encoding="UTF-8"?>

<!-- generated on 07/08/20 13:50:51 by Eclipse SUMO netconvert Version 1.5.0
<configuration xmlns:xsi="http://www.w3.org/2001/XMLSchema-instance" xsi:noNamespaceSchemaLocation="http://sumo.dlr.de/xsd/netconvertConfiguration.xsd">

    <input>
        <node-files value="YunLiangHeArtery_GuanghuaToQididajie.nod.xml"/>
        <edge-files value="YunLiangHeArtery_GuanghuaToQididajie.edg.xml"/>
        <connection-files value="YunLiangHeArtery_GuanghuaToQididajie.con.xml"/>
    </input>

    <output>
        <output-file value="YunLiangHeArtery_GuanghuaToQididajie.net.xml"/>
    </output>

    <report>
        <aggregate-warnings value="5"/>
    </report>

</configuration>
-->

<net version="1.3" junctionCornerDetail="5" limitTurnSpeed="5.50" xmlns:xsi="http://www.w3.org/2001/XMLSchema-instance" xsi:noNamespaceSchemaLocation="http://sumo.dlr.de/xsd/net_file.xsd">

    <location netOffset="-1580.00,300.00" convBoundary="0.00,0.00,1850.00,500.00" origBoundary="1580.00,-300.00,3430.00,200.00" projParameter="!"/>

    <edge id=":2_0" function="internal">
        <lane id=":2_0_0" index="0" speed="11.31" length="29.40" shape="185.60,327.80 184.56,319.14 181.45,312.95 176.26,309.24 169.00,308.00"/>
    </edge>
    <edge id=":2_1" function="internal">
        <lane id=":2_1_0" index="0" speed="16.67" length="55.60" shape="188.80,327.80 188.80,272.20"/>
        <lane id=":2_1_1" index="1" speed="16.67" length="55.60" shape="192.00,327.80 192.00,272.20"/>
    </edge>
    <edge id=":2_3" function="internal">
        <lane id=":2_3_0" index="0" speed="14.65" length="19.94" shape="195.20,327.80 197.24,314.94 201.07,309.18"/>
    </edge>
    <edge id=":2_18" function="internal">
        <lane id=":2_18_0" index="0" speed="14.65" length="30.08" shape="201.07,309.18 203.35,305.75 213.54,300.24 227.80,298.40"/>
    </edge>
    <edge id=":2_4" function="internal">
        <lane id=":2_4_0" index="0" speed="10.81" length="26.77" shape="227.80,311.20 220.54,312.24 215.35,315.35 212.24,320.54 211.20,327.80"/>
    </edge>
    <edge id=":2_5" function="internal">
        <lane id=":2_5_0" index="0" speed="16.67" length="58.89" shape="227.80,308.00 169.00,304.80"/>
        <lane id=":2_5_1" index="1" speed="16.67" length="58.89" shape="227.80,304.80 169.00,301.60"/>
    </edge>
    <edge id=":2_7" function="internal">
        <lane id=":2_7_0" index="0" speed="14.65" length="15.63" shape="227.80,301.60 213.54,299.76 212.44,299.17"/>
    </edge>
    <edge id=":2_19" function="internal">
        <lane id=":2_19_0" index="0" speed="14.65" length="34.39" shape="212.44,299.17 203.35,294.25 197.24,285.06 195.20,272.20"/>
    </edge>
    <edge id=":2_8" function="internal">
        <lane id=":2_8_0" index="0" speed="11.31" length="29.40" shape="211.20,272.20 212.24,280.86 215.35,287.05 220.54,290.76 227.80,292.00"/>
    </edge>
    <edge id=":2_9" function="internal">
        <lane id=":2_9_0" index="0" speed="16.67" length="55.69" shape="211.20,272.20 208.00,327.80"/>
        <lane id=":2_9_1" index="1" speed="16.67" length="55.69" shape="208.00,272.20 204.80,327.80"/>
        <lane id=":2_9_2" index="2" speed="16.67" length="55.69" shape="204.80,272.20 201.60,327.80"/>
    </edge>
    <edge id=":2_12" function="internal">
        <lane id=":2_12_0" index="0" speed="14.65" length="23.79" shape="201.60,272.20 199.56,285.06 193.60,294.02"/>
    </edge>
    <edge id=":2_20" function="internal">
        <lane id=":2_20_0" index="0" speed="14.65" length="26.23" shape="193.60,294.02 193.45,294.25 183.26,299.76 169.00,301.60"/>
    </edge>
    <edge id=":2_13" function="internal">
        <lane id=":2_13_0" index="0" speed="10.81" length="26.77" shape="169.00,288.80 176.26,287.76 181.45,284.65 184.56,279.46 185.60,272.20"/>
    </edge>
    <edge id=":2_14" function="internal">
        <lane id=":2_14_0" index="0" speed="16.67" length="58.89" shape="169.00,288.80 227.80,292.00"/>
        <lane id=":2_14_1" index="1" speed="16.67" length="58.89" shape="169.00,292.00 227.80,295.20"/>
        <lane id=":2_14_2" index="2" speed="16.67" length="58.89" shape="169.00,295.20 227.80,298.40"/>
    </edge>
    <edge id=":2_17" function="internal">
        <lane id=":2_17_0" index="0" speed="14.65" length="15.63" shape="169.00,298.40 183.26,300.24 184.36,300.83"/>
    </edge>
    <edge id=":2_21" function="internal">
        <lane id=":2_21_0" index="0" speed="14.65" length="34.39" shape="184.36,300.83 193.45,305.75 199.56,314.94 201.60,327.80"/>
    </edge>
    <edge id=":2_e_0_0" function="internal">
        <lane id=":2_e_0_0_0" index="0" speed="16.67" length="8.20" shape="334.00,308.00 331.54,308.50 330.00,309.60 328.46,310.70 326.00,311.20"/>
        <lane id=":2_e_0_0_1" index="1" speed="16.67" length="8.20" shape="334.00,308.00 326.00,308.00"/>
        <lane id=":2_e_0_0_2" index="2" speed="16.67" length="8.20" shape="334.00,304.80 326.00,304.80"/>
        <lane id=":2_e_0_0_3" index="3" speed="16.67" length="8.20" shape="334.00,301.60 326.00,301.60"/>
    </edge>
    <edge id=":2_e_downstream_0" function="internal">
        <lane id=":2_e_downstream_0_0" index="0" speed="16.67" length="0.10" shape="400.00,292.00 400.00,292.00"/>
        <lane id=":2_e_downstream_0_1" index="1" speed="16.67" length="0.10" shape="400.00,295.20 400.00,295.20"/>
        <lane id=":2_e_downstream_0_2" index="2" speed="16.67" length="0.10" shape="400.00,298.40 400.00,298.40"/>
    </edge>
    <edge id=":2_e_upstream_0" function="internal">
        <lane id=":2_e_upstream_0_0" index="0" speed="16.67" length="0.10" shape="400.00,308.00 400.00,308.00"/>
        <lane id=":2_e_upstream_0_1" index="1" speed="16.67" length="0.10" shape="400.00,304.80 400.00,304.80"/>
        <lane id=":2_e_upstream_0_2" index="2" speed="16.67" length="0.10" shape="400.00,301.60 400.00,301.60"/>
    </edge>
    <edge id=":2_n_0_0" function="internal">
        <lane id=":2_n_0_0_0" index="0" speed="16.67" length="0.10" shape="185.60,450.00 185.60,450.00"/>
        <lane id=":2_n_0_0_1" index="1" speed="16.67" length="0.10" shape="188.80,450.00 188.80,450.00"/>
        <lane id=":2_n_0_0_2" index="2" speed="16.67" length="0.10" shape="192.00,450.00 192.00,450.00"/>
        <lane id=":2_n_0_0_3" index="3" speed="16.67" length="0.10" shape="195.20,450.00 195.20,450.00"/>
    </edge>
    <edge id=":2_n_0_4" function="internal">
        <lane id=":2_n_0_4_0" index="0" speed="4.72" length="4.67" shape="195.20,450.00 196.80,447.60 198.40,446.80"/>
    </edge>
    <edge id=":2_n_0_9" function="internal">
        <lane id=":2_n_0_9_0" index="0" speed="4.72" length="4.67" shape="198.40,446.80 200.00,447.60 201.60,450.00"/>
    </edge>
    <edge id=":2_n_0_5" function="internal">
        <lane id=":2_n_0_5_0" index="0" speed="16.67" length="0.10" shape="211.20,450.00 211.20,450.00"/>
        <lane id=":2_n_0_5_1" index="1" speed="16.67" length="0.10" shape="208.00,450.00 208.00,450.00"/>
        <lane id=":2_n_0_5_2" index="2" speed="16.67" length="0.10" shape="204.80,450.00 204.80,450.00"/>
        <lane id=":2_n_0_5_3" index="3" speed="16.67" length="0.10" shape="201.60,450.00 201.60,450.00"/>
    </edge>
    <edge id=":2_s_0_0" function="internal">
        <lane id=":2_s_0_0_0" index="0" speed="16.67" length="8.20" shape="208.00,56.00 208.50,58.46 209.60,60.00 210.70,61.54 211.20,64.00"/>
        <lane id=":2_s_0_0_1" index="1" speed="16.67" length="8.20" shape="208.00,56.00 208.00,64.00"/>
        <lane id=":2_s_0_0_2" index="2" speed="16.67" length="8.20" shape="204.80,56.00 204.80,64.00"/>
        <lane id=":2_s_0_0_3" index="3" speed="16.67" length="8.20" shape="201.60,56.00 201.60,64.00"/>
    </edge>
    <edge id=":2_s_1_0" function="internal">
        <lane id=":2_s_1_0_0" index="0" speed="16.67" length="8.20" shape="185.60,164.00 186.10,161.54 187.20,160.00 188.30,158.46 188.80,156.00"/>
        <lane id=":2_s_1_0_1" index="1" speed="16.67" length="8.20" shape="188.80,164.00 188.80,156.00"/>
        <lane id=":2_s_1_0_2" index="2" speed="16.67" length="8.20" shape="192.00,164.00 192.00,156.00"/>
        <lane id=":2_s_1_0_3" index="3" speed="16.67" length="8.20" shape="195.20,164.00 195.20,156.00"/>
    </edge>
    <edge id=":2_s_2_0" function="internal">
        <lane id=":2_s_2_0_0" index="0" speed="16.67" length="0.10" shape="185.60,240.00 185.60,240.00"/>
        <lane id=":2_s_2_0_1" index="1" speed="16.67" length="0.10" shape="188.80,240.00 188.80,240.00"/>
        <lane id=":2_s_2_0_2" index="2" speed="16.67" length="0.10" shape="192.00,240.00 192.00,240.00"/>
        <lane id=":2_s_2_0_3" index="3" speed="16.67" length="0.10" shape="195.20,240.00 195.20,240.00"/>
    </edge>
    <edge id=":2_s_2_4" function="internal">
        <lane id=":2_s_2_4_0" index="0" speed="16.67" length="0.10" shape="211.20,240.00 211.20,240.00"/>
        <lane id=":2_s_2_4_1" index="1" speed="16.67" length="0.10" shape="208.00,240.00 208.00,240.00"/>
        <lane id=":2_s_2_4_2" index="2" speed="16.67" length="0.10" shape="204.80,240.00 204.80,240.00"/>
        <lane id=":2_s_2_4_3" index="3" speed="16.67" length="0.10" shape="201.60,240.00 201.60,240.00"/>
    </edge>
    <edge id=":2_s_2_8" function="internal">
        <lane id=":2_s_2_8_0" index="0" speed="4.72" length="4.67" shape="201.60,240.00 200.00,242.40 198.40,243.20"/>
    </edge>
    <edge id=":2_s_2_9" function="internal">
        <lane id=":2_s_2_9_0" index="0" speed="4.72" length="4.67" shape="198.40,243.20 196.80,242.40 195.20,240.00"/>
    </edge>
    <edge id=":2_w_0_0" function="internal">
        <lane id=":2_w_0_0_0" index="0" speed="16.67" length="8.27" shape="74.00,308.00 71.54,307.50 70.00,306.40 68.46,305.30 66.00,304.80"/>
        <lane id=":2_w_0_0_1" index="1" speed="16.67" length="8.27" shape="74.00,304.80 66.00,304.80"/>
        <lane id=":2_w_0_0_2" index="2" speed="16.67" length="8.27" shape="74.00,301.60 66.00,301.60"/>
    </edge>
    <edge id=":2_w_1_0" function="internal">
        <lane id=":2_w_1_0_0" index="0" speed="16.67" length="9.12" shape="86.00,295.20 88.69,294.20 90.00,292.00 91.31,289.80 94.00,288.80"/>
        <lane id=":2_w_1_0_1" index="1" speed="16.67" length="9.12" shape="86.00,295.20 88.46,294.70 90.00,293.60 91.54,292.50 94.00,292.00"/>
        <lane id=":2_w_1_0_2" index="2" speed="16.67" length="9.12" shape="86.00,298.40 88.46,297.90 90.00,296.80 91.54,295.70 94.00,295.20"/>
        <lane id=":2_w_1_0_3" index="3" speed="16.67" length="9.12" shape="86.00,298.40 94.00,298.40"/>
    </edge>
    <edge id=":3_0" function="internal">
        <lane id=":3_0_0" index="0" speed="11.31" length="29.40" shape="638.80,327.80 637.76,319.14 634.65,312.95 629.46,309.24 622.20,308.00"/>
    </edge>
    <edge id=":3_1" function="internal">
        <lane id=":3_1_0" index="0" speed="16.67" length="52.50" shape="642.00,327.80 645.20,275.40"/>
        <lane id=":3_1_1" index="1" speed="16.67" length="52.50" shape="645.20,327.80 648.40,275.40"/>
    </edge>
    <edge id=":3_3" function="internal">
        <lane id=":3_3_0" index="0" speed="14.27" length="14.17" shape="648.40,327.80 650.24,314.94 650.84,313.93"/>
    </edge>
    <edge id=":3_18" function="internal">
        <lane id=":3_18_0" index="0" speed="14.27" length="33.24" shape="650.84,313.93 655.75,305.75 664.94,300.24 677.80,298.40"/>
    </edge>
    <edge id=":3_4" function="internal">
        <lane id=":3_4_0" index="0" speed="11.80" length="32.10" shape="677.80,311.20 667.74,312.24 660.55,315.35 656.24,320.54 654.80,327.80"/>
    </edge>
    <edge id=":3_5" function="internal">
        <lane id=":3_5_0" index="0" speed="16.67" length="55.60" shape="677.80,308.00 622.20,308.00"/>
        <lane id=":3_5_1" index="1" speed="16.67" length="55.60" shape="677.80,304.80 622.20,304.80"/>
    </edge>
    <edge id=":3_7" function="internal">
        <lane id=":3_7_0" index="0" speed="13.89" length="12.67" shape="677.80,301.60 665.23,300.00"/>
    </edge>
    <edge id=":3_19" function="internal">
        <lane id=":3_19_0" index="0" speed="13.89" length="32.19" shape="665.23,300.00 664.94,299.96 655.75,295.05 650.24,286.86 648.40,275.40"/>
    </edge>
    <edge id=":3_8" function="internal">
        <lane id=":3_8_0" index="0" speed="11.31" length="29.40" shape="661.20,275.40 662.24,284.06 665.35,290.25 670.54,293.96 677.80,295.20"/>
    </edge>
    <edge id=":3_9" function="internal">
        <lane id=":3_9_0" index="0" speed="16.67" length="52.61" shape="661.20,275.40 660.20,290.62 658.00,305.35 655.80,318.21 654.80,327.80"/>
        <lane id=":3_9_1" index="1" speed="16.67" length="52.61" shape="658.00,275.40 654.80,327.80"/>
        <lane id=":3_9_2" index="2" speed="16.67" length="52.61" shape="654.80,275.40 651.60,327.80"/>
    </edge>
    <edge id=":3_12" function="internal">
        <lane id=":3_12_0" index="0" speed="14.27" length="14.17" shape="651.60,275.40 649.76,288.26 649.16,289.27"/>
    </edge>
    <edge id=":3_20" function="internal">
        <lane id=":3_20_0" index="0" speed="14.27" length="33.24" shape="649.16,289.27 644.25,297.45 635.06,302.96 622.20,304.80"/>
    </edge>
    <edge id=":3_13" function="internal">
        <lane id=":3_13_0" index="0" speed="11.80" length="32.10" shape="622.20,292.00 632.26,290.96 639.45,287.85 643.76,282.66 645.20,275.40"/>
    </edge>
    <edge id=":3_14" function="internal">
        <lane id=":3_14_0" index="0" speed="16.67" length="55.63" shape="622.20,292.00 677.80,295.20"/>
        <lane id=":3_14_1" index="1" speed="16.67" length="55.63" shape="622.20,295.20 677.80,295.20"/>
        <lane id=":3_14_2" index="2" speed="16.67" length="55.63" shape="622.20,298.40 677.80,298.40"/>
    </edge>
    <edge id=":3_17" function="internal">
        <lane id=":3_17_0" index="0" speed="13.89" length="12.67" shape="622.20,301.60 634.77,303.20"/>
    </edge>
    <edge id=":3_21" function="internal">
        <lane id=":3_21_0" index="0" speed="13.89" length="32.19" shape="634.77,303.20 635.06,303.24 644.25,308.15 649.76,316.34 651.60,327.80"/>
    </edge>
    <edge id=":3_e_0_0" function="internal">
        <lane id=":3_e_0_0_0" index="0" speed="16.67" length="9.12" shape="764.00,304.80 761.31,305.80 760.00,308.00 758.69,310.20 756.00,311.20"/>
        <lane id=":3_e_0_0_1" index="1" speed="16.67" length="9.12" shape="764.00,304.80 761.54,305.30 760.00,306.40 758.46,307.50 756.00,308.00"/>
        <lane id=":3_e_0_0_2" index="2" speed="16.67" length="9.12" shape="764.00,301.60 761.54,302.10 760.00,303.20 758.46,304.30 756.00,304.80"/>
        <lane id=":3_e_0_0_3" index="3" speed="16.67" length="9.12" shape="764.00,301.60 756.00,301.60"/>
    </edge>
    <edge id=":3_e_downstream_0" function="internal">
        <lane id=":3_e_downstream_0_0" index="0" speed="16.67" length="0.10" shape="850.00,295.20 850.00,295.20"/>
        <lane id=":3_e_downstream_0_1" index="1" speed="16.67" length="0.10" shape="850.00,298.40 850.00,298.40"/>
    </edge>
    <edge id=":3_e_upstream_0" function="internal">
        <lane id=":3_e_upstream_0_0" index="0" speed="16.67" length="0.10" shape="850.00,304.80 850.00,304.80"/>
        <lane id=":3_e_upstream_0_1" index="1" speed="16.67" length="0.10" shape="850.00,301.60 850.00,301.60"/>
    </edge>
    <edge id=":3_n_0_0" function="internal">
        <lane id=":3_n_0_0_0" index="0" speed="16.67" length="8.20" shape="638.80,434.00 638.80,426.00"/>
        <lane id=":3_n_0_0_1" index="1" speed="16.67" length="8.20" shape="642.00,434.00 642.00,426.00"/>
        <lane id=":3_n_0_0_2" index="2" speed="16.67" length="8.20" shape="645.20,434.00 645.20,426.00"/>
        <lane id=":3_n_0_0_3" index="3" speed="16.67" length="8.20" shape="645.20,434.00 645.70,431.54 646.80,430.00 647.90,428.46 648.40,426.00"/>
    </edge>
    <edge id=":3_n_0_4" function="internal">
        <lane id=":3_n_0_4_0" index="0" speed="16.67" length="8.27" shape="654.80,426.00 654.80,434.00"/>
        <lane id=":3_n_0_4_1" index="1" speed="16.67" length="8.27" shape="651.60,426.00 651.60,434.00"/>
        <lane id=":3_n_0_4_2" index="2" speed="16.67" length="8.27" shape="651.60,426.00 651.10,428.46 650.00,430.00 648.90,431.54 648.40,434.00"/>
    </edge>
    <edge id=":3_s_0_0" function="internal">
        <lane id=":3_s_0_0_0" index="0" speed="16.67" length="8.20" shape="658.00,196.00 658.50,198.46 659.60,200.00 660.70,201.54 661.20,204.00"/>
        <lane id=":3_s_0_0_1" index="1" speed="16.67" length="8.20" shape="658.00,196.00 658.00,204.00"/>
        <lane id=":3_s_0_0_2" index="2" speed="16.67" length="8.20" shape="654.80,196.00 654.80,204.00"/>
        <lane id=":3_s_0_0_3" index="3" speed="16.67" length="8.20" shape="651.60,196.00 651.60,204.00"/>
    </edge>
    <edge id=":3_w_0_0" function="internal">
        <lane id=":3_w_0_0_0" index="0" speed="16.67" length="8.27" shape="554.00,308.00 546.00,308.00"/>
        <lane id=":3_w_0_0_1" index="1" speed="16.67" length="8.27" shape="554.00,304.80 546.00,304.80"/>
        <lane id=":3_w_0_0_2" index="2" speed="16.67" length="8.27" shape="554.00,304.80 551.54,304.30 550.00,303.20 548.46,302.10 546.00,301.60"/>
    </edge>
    <edge id=":3_w_1_0" function="internal">
        <lane id=":3_w_1_0_0" index="0" speed="16.67" length="8.40" shape="546.00,292.00 554.00,292.00"/>
        <lane id=":3_w_1_0_1" index="1" speed="16.67" length="8.40" shape="546.00,295.20 554.00,295.20"/>
        <lane id=":3_w_1_0_2" index="2" speed="16.67" length="8.40" shape="546.00,295.20 548.46,295.70 550.00,296.80 551.54,297.90 554.00,298.40"/>
        <lane id=":3_w_1_0_3" index="3" speed="16.67" length="8.40" shape="546.00,298.40 548.46,298.90 550.00,300.00 551.54,301.10 554.00,301.60"/>
    </edge>
    <edge id=":3_w_downstream_0" function="internal">
        <lane id=":3_w_downstream_0_0" index="0" speed="16.67" length="0.10" shape="450.00,308.00 450.00,308.00"/>
        <lane id=":3_w_downstream_0_1" index="1" speed="16.67" length="0.10" shape="450.00,304.80 450.00,304.80"/>
        <lane id=":3_w_downstream_0_2" index="2" speed="16.67" length="0.10" shape="450.00,301.60 450.00,301.60"/>
    </edge>
    <edge id=":3_w_upstream_0" function="internal">
        <lane id=":3_w_upstream_0_0" index="0" speed="16.67" length="0.10" shape="450.00,292.00 450.00,292.00"/>
        <lane id=":3_w_upstream_0_1" index="1" speed="16.67" length="0.10" shape="450.00,295.20 450.00,295.20"/>
        <lane id=":3_w_upstream_0_2" index="2" speed="16.67" length="0.10" shape="450.00,298.40 450.00,298.40"/>
    </edge>
    <edge id=":4_0" function="internal">
        <lane id=":4_0_0" index="0" speed="11.31" length="29.40" shape="1158.80,324.60 1157.76,315.94 1154.65,309.75 1149.46,306.04 1142.20,304.80"/>
    </edge>
    <edge id=":4_1" function="internal">
        <lane id=":4_1_0" index="0" speed="16.67" length="52.50" shape="1162.00,324.60 1165.20,272.20"/>
        <lane id=":4_1_1" index="1" speed="16.67" length="52.50" shape="1165.20,324.60 1168.40,272.20"/>
    </edge>
    <edge id=":4_3" function="internal">
        <lane id=":4_3_0" index="0" speed="14.27" length="14.17" shape="1168.40,324.60 1170.24,311.74 1170.84,310.73"/>
    </edge>
    <edge id=":4_18" function="internal">
        <lane id=":4_18_0" index="0" speed="14.27" length="33.24" shape="1170.84,310.73 1175.75,302.55 1184.94,297.04 1197.80,295.20"/>
    </edge>
    <edge id=":4_4" function="internal">
        <lane id=":4_4_0" index="0" speed="11.80" length="32.10" shape="1197.80,308.00 1187.74,309.04 1180.55,312.15 1176.24,317.34 1174.80,324.60"/>
    </edge>
    <edge id=":4_5" function="internal">
        <lane id=":4_5_0" index="0" speed="16.67" length="55.60" shape="1197.80,304.80 1142.20,304.80"/>
        <lane id=":4_5_1" index="1" speed="16.67" length="55.60" shape="1197.80,301.60 1142.20,301.60"/>
    </edge>
    <edge id=":4_7" function="internal">
        <lane id=":4_7_0" index="0" speed="13.89" length="12.67" shape="1197.80,298.40 1185.23,296.80"/>
    </edge>
    <edge id=":4_19" function="internal">
        <lane id=":4_19_0" index="0" speed="13.89" length="32.19" shape="1185.23,296.80 1184.94,296.76 1175.75,291.85 1170.24,283.66 1168.40,272.20"/>
    </edge>
    <edge id=":4_8" function="internal">
        <lane id=":4_8_0" index="0" speed="11.31" length="29.40" shape="1181.20,272.20 1182.24,280.86 1185.35,287.05 1190.54,290.76 1197.80,292.00"/>
    </edge>
    <edge id=":4_9" function="internal">
        <lane id=":4_9_0" index="0" speed="16.67" length="52.61" shape="1181.20,272.20 1180.20,287.42 1178.00,302.15 1175.80,315.01 1174.80,324.60"/>
        <lane id=":4_9_1" index="1" speed="16.67" length="52.61" shape="1178.00,272.20 1174.80,324.60"/>
        <lane id=":4_9_2" index="2" speed="16.67" length="52.61" shape="1174.80,272.20 1171.60,324.60"/>
    </edge>
    <edge id=":4_12" function="internal">
        <lane id=":4_12_0" index="0" speed="14.27" length="14.17" shape="1171.60,272.20 1169.76,285.06 1169.16,286.07"/>
    </edge>
    <edge id=":4_20" function="internal">
        <lane id=":4_20_0" index="0" speed="14.27" length="33.24" shape="1169.16,286.07 1164.25,294.25 1155.06,299.76 1142.20,301.60"/>
    </edge>
    <edge id=":4_13" function="internal">
        <lane id=":4_13_0" index="0" speed="11.80" length="32.10" shape="1142.20,288.80 1152.26,287.76 1159.45,284.65 1163.76,279.46 1165.20,272.20"/>
    </edge>
    <edge id=":4_14" function="internal">
        <lane id=":4_14_0" index="0" speed="16.67" length="55.63" shape="1142.20,288.80 1197.80,292.00"/>
        <lane id=":4_14_1" index="1" speed="16.67" length="55.63" shape="1142.20,292.00 1197.80,292.00"/>
        <lane id=":4_14_2" index="2" speed="16.67" length="55.63" shape="1142.20,295.20 1197.80,295.20"/>
    </edge>
    <edge id=":4_17" function="internal">
        <lane id=":4_17_0" index="0" speed="13.89" length="12.67" shape="1142.20,298.40 1154.77,300.00"/>
    </edge>
    <edge id=":4_21" function="internal">
        <lane id=":4_21_0" index="0" speed="13.89" length="32.19" shape="1154.77,300.00 1155.06,300.04 1164.25,304.95 1169.76,313.14 1171.60,324.60"/>
    </edge>
    <edge id=":4_e_0_0" function="internal">
        <lane id=":4_e_0_0_0" index="0" speed="16.67" length="8.27" shape="1246.00,292.00 1254.00,292.00"/>
        <lane id=":4_e_0_0_1" index="1" speed="16.67" length="8.27" shape="1246.00,295.20 1254.00,295.20"/>
        <lane id=":4_e_0_0_2" index="2" speed="16.67" length="8.27" shape="1246.00,295.20 1248.46,295.70 1250.00,296.80 1251.54,297.90 1254.00,298.40"/>
    </edge>
    <edge id=":4_e_1_0" function="internal">
        <lane id=":4_e_1_0_0" index="0" speed="16.67" length="8.20" shape="1254.00,308.00 1246.00,308.00"/>
        <lane id=":4_e_1_0_1" index="1" speed="16.67" length="8.20" shape="1254.00,304.80 1246.00,304.80"/>
        <lane id=":4_e_1_0_2" index="2" speed="16.67" length="8.20" shape="1254.00,301.60 1246.00,301.60"/>
        <lane id=":4_e_1_0_3" index="3" speed="16.67" length="8.20" shape="1254.00,301.60 1251.54,301.10 1250.00,300.00 1248.46,298.90 1246.00,298.40"/>
    </edge>
    <edge id=":4_e_downstream_0" function="internal">
        <lane id=":4_e_downstream_0_0" index="0" speed="16.67" length="0.10" shape="1370.00,292.00 1370.00,292.00"/>
        <lane id=":4_e_downstream_0_1" index="1" speed="16.67" length="0.10" shape="1370.00,295.20 1370.00,295.20"/>
        <lane id=":4_e_downstream_0_2" index="2" speed="16.67" length="0.10" shape="1370.00,298.40 1370.00,298.40"/>
    </edge>
    <edge id=":4_e_upstream_0" function="internal">
        <lane id=":4_e_upstream_0_0" index="0" speed="16.67" length="0.10" shape="1370.00,308.00 1370.00,308.00"/>
        <lane id=":4_e_upstream_0_1" index="1" speed="16.67" length="0.10" shape="1370.00,304.80 1370.00,304.80"/>
        <lane id=":4_e_upstream_0_2" index="2" speed="16.67" length="0.10" shape="1370.00,301.60 1370.00,301.60"/>
    </edge>
    <edge id=":4_n_0_0" function="internal">
        <lane id=":4_n_0_0_0" index="0" speed="16.67" length="8.20" shape="1158.80,424.00 1158.80,416.00"/>
        <lane id=":4_n_0_0_1" index="1" speed="16.67" length="8.20" shape="1162.00,424.00 1162.00,416.00"/>
        <lane id=":4_n_0_0_2" index="2" speed="16.67" length="8.20" shape="1165.20,424.00 1165.20,416.00"/>
        <lane id=":4_n_0_0_3" index="3" speed="16.67" length="8.20" shape="1165.20,424.00 1165.70,421.54 1166.80,420.00 1167.90,418.46 1168.40,416.00"/>
    </edge>
    <edge id=":4_n_0_4" function="internal">
        <lane id=":4_n_0_4_0" index="0" speed="16.67" length="8.27" shape="1174.80,416.00 1174.80,424.00"/>
        <lane id=":4_n_0_4_1" index="1" speed="16.67" length="8.27" shape="1171.60,416.00 1171.60,424.00"/>
        <lane id=":4_n_0_4_2" index="2" speed="16.67" length="8.27" shape="1171.60,416.00 1171.10,418.46 1170.00,420.00 1168.90,421.54 1168.40,424.00"/>
    </edge>
    <edge id=":4_s_0_0" function="internal">
        <lane id=":4_s_0_0_0" index="0" speed="16.67" length="8.20" shape="1178.00,156.00 1178.50,158.46 1179.60,160.00 1180.70,161.54 1181.20,164.00"/>
        <lane id=":4_s_0_0_1" index="1" speed="16.67" length="8.20" shape="1178.00,156.00 1178.00,164.00"/>
        <lane id=":4_s_0_0_2" index="2" speed="16.67" length="8.20" shape="1174.80,156.00 1174.80,164.00"/>
        <lane id=":4_s_0_0_3" index="3" speed="16.67" length="8.20" shape="1171.60,156.00 1171.60,164.00"/>
    </edge>
    <edge id=":4_w_0_0" function="internal">
        <lane id=":4_w_0_0_0" index="0" speed="16.67" length="9.12" shape="1056.00,295.20 1058.69,294.20 1060.00,292.00 1061.31,289.80 1064.00,288.80"/>
        <lane id=":4_w_0_0_1" index="1" speed="16.67" length="9.12" shape="1056.00,295.20 1058.46,294.70 1060.00,293.60 1061.54,292.50 1064.00,292.00"/>
        <lane id=":4_w_0_0_2" index="2" speed="16.67" length="9.12" shape="1056.00,298.40 1058.46,297.90 1060.00,296.80 1061.54,295.70 1064.00,295.20"/>
        <lane id=":4_w_0_0_3" index="3" speed="16.67" length="9.12" shape="1056.00,298.40 1064.00,298.40"/>
    </edge>
    <edge id=":4_w_downstream_0" function="internal">
        <lane id=":4_w_downstream_0_0" index="0" speed="16.67" length="0.10" shape="970.00,304.80 970.00,304.80"/>
        <lane id=":4_w_downstream_0_1" index="1" speed="16.67" length="0.10" shape="970.00,301.60 970.00,301.60"/>
    </edge>
    <edge id=":4_w_upstream_0" function="internal">
        <lane id=":4_w_upstream_0_0" index="0" speed="16.67" length="0.10" shape="970.00,295.20 970.00,295.20"/>
        <lane id=":4_w_upstream_0_1" index="1" speed="16.67" length="0.10" shape="970.00,298.40 970.00,298.40"/>
    </edge>
    <edge id=":5_0" function="internal">
        <lane id=":5_0_0" index="0" speed="11.31" length="29.40" shape="1638.80,327.80 1637.76,319.14 1634.65,312.95 1629.46,309.24 1622.20,308.00"/>
    </edge>
    <edge id=":5_1" function="internal">
        <lane id=":5_1_0" index="0" speed="16.67" length="55.60" shape="1642.00,327.80 1642.00,272.20"/>
        <lane id=":5_1_1" index="1" speed="16.67" length="55.60" shape="1645.20,327.80 1645.20,272.20"/>
    </edge>
    <edge id=":5_3" function="internal">
        <lane id=":5_3_0" index="0" speed="14.27" length="18.75" shape="1648.40,327.80 1650.24,314.94 1653.20,310.00"/>
    </edge>
    <edge id=":5_18" function="internal">
        <lane id=":5_18_0" index="0" speed="14.27" length="28.66" shape="1653.20,310.00 1655.75,305.75 1664.94,300.24 1677.80,298.40"/>
    </edge>
    <edge id=":5_4" function="internal">
        <lane id=":5_4_0" index="0" speed="10.81" length="26.77" shape="1677.80,311.20 1670.54,312.24 1665.35,315.35 1662.24,320.54 1661.20,327.80"/>
    </edge>
    <edge id=":5_5" function="internal">
        <lane id=":5_5_0" index="0" speed="16.67" length="55.69" shape="1677.80,308.00 1622.20,304.80"/>
        <lane id=":5_5_1" index="1" speed="16.67" length="55.69" shape="1677.80,304.80 1622.20,301.60"/>
    </edge>
    <edge id=":5_7" function="internal">
        <lane id=":5_7_0" index="0" speed="14.27" length="14.07" shape="1677.80,301.60 1664.94,299.76 1664.02,299.21"/>
    </edge>
    <edge id=":5_19" function="internal">
        <lane id=":5_19_0" index="0" speed="14.27" length="33.35" shape="1664.02,299.21 1655.75,294.25 1650.24,285.06 1648.40,272.20"/>
    </edge>
    <edge id=":5_8" function="internal">
        <lane id=":5_8_0" index="0" speed="11.80" length="32.10" shape="1661.20,272.20 1662.24,282.26 1665.35,289.45 1670.54,293.76 1677.80,295.20"/>
    </edge>
    <edge id=":5_9" function="internal">
        <lane id=":5_9_0" index="0" speed="16.67" length="55.60" shape="1661.20,272.20 1661.20,327.80"/>
        <lane id=":5_9_1" index="1" speed="16.67" length="55.60" shape="1658.00,272.20 1658.00,327.80"/>
        <lane id=":5_9_2" index="2" speed="16.67" length="55.60" shape="1654.80,272.20 1654.80,327.80"/>
    </edge>
    <edge id=":5_12" function="internal">
        <lane id=":5_12_0" index="0" speed="14.27" length="18.75" shape="1651.60,272.20 1649.76,285.06 1646.80,290.00"/>
    </edge>
    <edge id=":5_20" function="internal">
        <lane id=":5_20_0" index="0" speed="14.27" length="28.66" shape="1646.80,290.00 1644.25,294.25 1635.06,299.76 1622.20,301.60"/>
    </edge>
    <edge id=":5_13" function="internal">
        <lane id=":5_13_0" index="0" speed="10.81" length="26.77" shape="1622.20,288.80 1629.46,287.76 1634.65,284.65 1637.76,279.46 1638.80,272.20"/>
    </edge>
    <edge id=":5_14" function="internal">
        <lane id=":5_14_0" index="0" speed="16.67" length="55.80" shape="1622.20,288.80 1637.92,289.80 1653.75,292.00 1667.71,294.20 1677.80,295.20"/>
        <lane id=":5_14_1" index="1" speed="16.67" length="55.80" shape="1622.20,292.00 1677.80,295.20"/>
        <lane id=":5_14_2" index="2" speed="16.67" length="55.80" shape="1622.20,295.20 1677.80,298.40"/>
    </edge>
    <edge id=":5_17" function="internal">
        <lane id=":5_17_0" index="0" speed="14.27" length="14.07" shape="1622.20,298.40 1635.06,300.24 1635.98,300.79"/>
    </edge>
    <edge id=":5_21" function="internal">